VERSION 18
*******************************************************************************
*** TRNSYS input file (deck) generated by TrnsysStudio
*** on Tuesday, May 07, 2024 at 08:46
*** from TrnsysStudio project: C:\Users\z5158936\OneDrive - UNSW\0-SolarShift\tm_solarshift\dev\trnsys_weather_file\TRNSYS_weather_processing.tpf
*** 
*** If you edit this file, use the File/Import TRNSYS Input File function in 
*** TrnsysStudio to update the project. 
*** 
*** If you have problems, questions or suggestions please contact your local 
*** TRNSYS distributor or mailto:software@cstb.fr 
*** 
*******************************************************************************


*******************************************************************************
*** Units 
*******************************************************************************

*******************************************************************************
*** Control cards
*******************************************************************************
* START, STOP and STEP
CONSTANTS 3
START=0
STOP=8760
STEP=3/60
SIMULATION 	 START	 STOP	 STEP	! Start time	End time	Time step
TOLERANCES 0.001 0.001			! Integration	 Convergence
LIMITS 30 500 50				! Max iterations	Max warnings	Trace limit
DFQ 1					! TRNSYS numerical integration solver method
WIDTH 80				! TRNSYS output file width, number of characters
LIST 					! NOLIST statement
					! MAP statement
SOLVER 0 1 1				! Solver statement	Minimum relaxation factor	Maximum relaxation factor
NAN_CHECK 0				! Nan DEBUG statement
OVERWRITE_CHECK 0			! Overwrite DEBUG statement
TIME_REPORT 0			! disable time report
EQSOLVER 0				! EQUATION SOLVER statement
* User defined CONSTANTS 
*$USER_CONSTANTS

*$USER_CONSTANTS_END


* Model "Type15-6_Weather" (Type 15)
* 

UNIT 7 TYPE 15	 Type15-6_Weather
*$UNIT_NAME Type15-6_Weather
*$MODEL .\Weather Data Reading and Processing\Standard Format\Meteonorm Files (TM2)\Type15-6.tmf
*$POSITION 381 177
*$LAYER Weather - Data Files # 
PARAMETERS 9
6		! 1 File Type
31		! 2 Logical unit
5		! 3 Tilted Surface Radiation Mode
0.2		! 4 Ground reflectance - no snow
0.7		! 5 Ground reflectance - snow cover
1		! 6 Number of surfaces
1		! 7 Tracking mode
30		! 8 Slope of surface
0		! 9 Azimuth of surface
*** External files°
ASSIGN  "C:/TRNSYS18/Weather/Meteonorm/Australia-Oceania\AU-Townsville-942940.tm2 " 31
*|? Which file contains the Meteonorm weather data? |1000
*------------------------------------------------------------------------------

* Model "File - Detailed Results" (Type 25)
* 

UNIT 26 TYPE 25	 File - Detailed Results
*$UNIT_NAME File - Detailed Results
*$MODEL .\Output\Printer\Unformatted\No Units\Type25c.tmf
*$POSITION 641 177
*$LAYER Outputs # 
PARAMETERS 10
STEP		! 1 Printing interval
START		! 2 Start time
STOP		! 3 Stop time
41		! 4 Logical unit
0		! 5 Units printing mode
0		! 6 Relative or absolute start time
-1		! 7 Overwrite or Append
-1		! 8 Print header
1		! 9 Delimiter
1		! 10 Print labels
INPUTS 6
7,18 		! Type15-6_Weather:Total horizontal radiation ->GHI
7,1 		! Type15-6_Weather:Dry bulb temperature ->temp_amb
7,5 		! Type15-6_Weather:Mains water temperature ->temp_mains
7,15 		! Type15-6_Weather:Direct normal radiation (not interpolated) ->DNI
7,14 		! Type15-6_Weather:Diffuse horizontal radiation (not interpolated) ->DHI
7,8 		! Type15-6_Weather:Wind velocity ->WS
*** INITIAL INPUT VALUES
GHI temp_amb temp_mains DNI DHI WS 
*** External files
ASSIGN "output_meteonorm_temp.dat" 41
*|? Output file for printed results |1000
*------------------------------------------------------------------------------

END
*!LINK_STYLE
*!LINK 7:26
*!CONNECTION_SET 40:20:0:20:5,4,1,6,3,2:0:2:0:1:401,169:528,169:621,169
*!LINK_STYLE_END
